&clm_initinterp_inparm
use_init_interp=.true.
/
