2020-11-09 14:49:56: xmlchange success <command> ./xmlchange JOB_WALLCLOCK_TIME=1:00:00  </command>
 ---------------------------------------------------
2020-11-09 14:49:56: xmlchange success <command> ./xmlchange --subgroup case.st_archive JOB_WALLCLOCK_TIME=01:00:00  </command>
 ---------------------------------------------------
2020-11-09 14:49:56: xmlchange success <command> ./xmlchange EXEROOT=/mnt/exports/shared/home/cesm/cesm/CESMruns/runs/team08_run3/bld  </command>
 ---------------------------------------------------
2020-11-09 14:49:56: xmlchange success <command> ./xmlchange RESUBMIT=0  </command>
 ---------------------------------------------------
2020-11-09 14:49:57: xmlchange success <command> ./xmlchange STOP_N=12  </command>
 ---------------------------------------------------
2020-11-09 14:49:57: xmlchange success <command> ./xmlchange STOP_OPTION=nmonths  </command>
 ---------------------------------------------------
2020-11-09 14:49:57: xmlchange success <command> ./xmlchange REST_N=1  </command>
 ---------------------------------------------------
2020-11-09 14:49:58: xmlchange success <command> ./xmlchange REST_OPTION=nmonths  </command>
 ---------------------------------------------------
2020-11-09 14:49:58: xmlchange success <command> ./xmlchange RUNDIR=/mnt/exports/shared/home/cesm/cesm/CESMruns/runs/team08_run3/run  </command>
 ---------------------------------------------------
2020-11-09 14:49:58: xmlchange success <command> ./xmlchange RUN_STARTDATE=2000-01-01  </command>
 ---------------------------------------------------
2020-11-09 14:49:58: case.setup starting 
 ---------------------------------------------------
2020-11-09 14:50:02: case.setup success 
 ---------------------------------------------------
2020-11-09 14:50:03: case.build starting 
 ---------------------------------------------------
2020-11-09 14:50:31: case.build error 
ERROR: BUILD FAIL: cice.buildlib failed, cat /mnt/exports/shared/home/cesm/cesm/CESMruns/runs/team08_run3/bld/ice.bldlog.201109-145003
BUILD FAIL: mosart.buildlib failed, cat /mnt/exports/shared/home/cesm/cesm/CESMruns/runs/team08_run3/bld/rof.bldlog.201109-145003
 ---------------------------------------------------
2020-11-09 16:21:26: build.clean starting 
 ---------------------------------------------------
2020-11-09 16:23:34: build.clean success 
 ---------------------------------------------------
2020-11-09 16:23:48: case.build starting 
 ---------------------------------------------------
2020-11-09 16:23:54: case.build error 
ERROR: /mnt/exports/shared/home/cesm/cesm/cesm/cime/src/build_scripts/buildlib.gptl FAILED, cat /mnt/exports/shared/home/cesm/cesm/CESMruns/runs/team08_run3/bld/gptl.bldlog.201109-162348
 ---------------------------------------------------
